Questionable use of curly braces in "d1 b c {dz1}"
    Error: undefined symbol in: "[dz1]"
Questionable use of curly braces in "d2 0 c {dz2}"
    Error: undefined symbol in: "[dz2]"
Circuit: * C:\Users\User\Desktop\Q1\QUESTÃO D\Lab EaD 01 D.asc

Direct Newton iteration for .op point succeeded.
Semiconductor Device Operating Points:
                        --- Diodes ---
Name:      d2          d1
Model:     dz2         dz1
Id:     -2.16e-01    2.16e-01
Vd:     -6.16e+00    1.22e+00
Req:     1.20e-01    1.80e-01
CAP:     0.00e+00    0.00e+00



Date: Sun Apr 13 21:23:29 2025
Total elapsed time: 0.064 seconds.

tnom = 27
temp = 27
method = trap
totiter = 32
traniter = 0
tranpoints = 0
accept = 0
rejected = 0
matrix size = 4
fillins = 0
solver = Normal
Matrix Compiler1: 100 bytes object code size
Matrix Compiler2: 248 bytes object code size
