LTspice 24.1.6 for Windows
Circuit: Z:\home\jambrosio\Desktop\AmpOP\EaD\Q02-QUESTAO2.net
Start Time: Wed Apr 23 16:32:10 2025
solver = Normal
Maximum thread count: 4
tnom = 27
temp = 27
method = trap
.OP point found by inspection.
Total elapsed time: 0.426 seconds.

Files loaded:
Z:\home\jambrosio\Desktop\AmpOP\EaD\Q02-QUESTAO2.net
C:\users\steamuser\AppData\Local\LTspice\lib\cmp\standard.dio

vlmed: AVG(V(a))=126.280626934 FROM 0 TO 0.25
vlrms: RMS(V(a))=140.481686402 FROM 0 TO 0.25
ilrms: RMS(I(R1))=127.710623398 FROM 0 TO 0.25
idmed: AVG(I(D1))=57.4001344499 FROM 0 TO 0.25
idrms: RMS(I(D1))=90.3044609522 FROM 0 TO 0.25
virms: RMS(V(x)-V(y))=149.990185348 FROM 0 TO 0.25
iirms: RMS(I(V1))=127.710623398 FROM 0 TO 0.25
pd1: 4*(IDmed*Von+Ron*IDrms*IDrms)=1214.20655084
pr: VLrms*ILrms=17941.0037464
s: Virms*Iirms=19155.3400745
fatorpotencia: PR/S=0.93660585908
irmed: AVG(I(R1))=114.800569701 FROM 0 TO 0.25
