LTspice 24.1.6 for Windows
Circuit: Z:\home\jambrosio\Desktop\AmpOP\EaD\Q02-QUESTAO1.net
Start Time: Wed Apr 23 16:28:49 2025
solver = Normal
Maximum thread count: 4
tnom = 27
temp = 27
method = trap
.OP point found by inspection.
Total elapsed time: 0.347 seconds.

Files loaded:
Z:\home\jambrosio\Desktop\AmpOP\EaD\Q02-QUESTAO1.net
C:\users\steamuser\AppData\Local\LTspice\lib\cmp\standard.dio

vlmed: AVG(V(a))=87.5638890375 FROM 0 TO 0.25
vlrms: RMS(V(a))=139.176970234 FROM 0 TO 0.25
ilrms: RMS(I(R1))=20.467201459 FROM 0 TO 0.25
idmed: AVG(I(D1))=12.8770424808 FROM 0 TO 0.25
idrms: RMS(I(D1))=20.467201459 FROM 0 TO 0.25
virms: RMS(V(x))=199.986584498 FROM 0 TO 0.25
iirms: RMS(I(V1))=20.467201459 FROM 0 TO 0.25
pd1: (IDmed*Von+Ron*IDrms*IDrms)=13.3969536393
pr: VLrms*ILrms=2848.56308824
s: Virms*Iirms=4093.16571402
fatorpotencia: PR/S=0.695931532524
imed: AVG(I(R1))=12.8770424808 FROM 0 TO 0.25
