Circuit: * C:\Users\User\Desktop\Q1\QUESTÃO E\Lab EaD 01 E.asc

Direct Newton iteration for .op point succeeded.
Semiconductor Device Operating Points:
                        --- Diodes ---
Name:      d2          d3          d1
Model:     dz2         led         dz1
Id:     -4.88e-02    4.98e-02   -5.60e-02
Vd:     -4.42e+00    2.18e+00   -4.12e+00
Req:     5.30e-01    1.56e+00    4.61e-01
CAP:     0.00e+00    0.00e+00    0.00e+00



Date: Sun Apr 13 20:50:46 2025
Total elapsed time: 0.070 seconds.

tnom = 27
temp = 27
method = trap
totiter = 34
traniter = 0
tranpoints = 0
accept = 0
rejected = 0
matrix size = 5
fillins = 0
solver = Normal
Matrix Compiler1: 168 bytes object code size
Matrix Compiler2:      29 opcodes
