Questionable use of curly braces in "d1 n001 n002 {d1}"
    Error: undefined symbol in: "[d1]"
Questionable use of curly braces in "d2 n001 n002 {d2}"
    Error: undefined symbol in: "[d2]"
Questionable use of curly braces in "d3 n002 n003 {d3}"
    Error: undefined symbol in: "[d3]"
Circuit: * C:\Users\User\Desktop\Q1\QUESTÃO C\Lab 01 EaD C.asc

Direct Newton iteration for .op point succeeded.
Semiconductor Device Operating Points:
                        --- Diodes ---
Name:      d3          d2          d1
Model:     d3          d2          d1
Id:      5.72e-02    6.54e-07    5.72e-02
Vd:      1.83e+00    8.50e-01    8.50e-01
Req:     1.13e+00    7.52e+04    4.97e-01
CAP:     0.00e+00    0.00e+00    0.00e+00



Date: Sun Apr 13 20:30:48 2025
Total elapsed time: 0.050 seconds.

tnom = 27
temp = 27
method = trap
totiter = 11
traniter = 0
tranpoints = 0
accept = 0
rejected = 0
matrix size = 4
fillins = 0
solver = Normal
Matrix Compiler1: 100 bytes object code size
Matrix Compiler2: 248 bytes object code size
