Questionable use of curly braces in "d0 a b {d0}"
    Error: undefined symbol in: "[d0]"
Circuit: * C:\Users\User\Desktop\Q1\QUESTÃO A\Lab EaD 01 A.asc

Direct Newton iteration for .op point succeeded.
Semiconductor Device Operating Points:
                        --- Diodes ---
Name:      d0
Model:     d0
Id:      1.36e-01
Vd:      1.39e+00
Req:     7.45e-01
CAP:     3.68e-06



Date: Sun Apr 13 21:29:56 2025
Total elapsed time: 0.057 seconds.

tnom = 27
temp = 27
method = trap
totiter = 4
traniter = 0
tranpoints = 0
accept = 0
rejected = 0
matrix size = 4
fillins = 0
solver = Normal
Matrix Compiler1: 118 bytes object code size
Matrix Compiler2: 242 bytes object code size
